*Heading
** Job name: Job-Cubo Model name: Cubo
** Generated by: Abaqus/CAE Learning Edition 2022
*Preprint, echo=NO, model=NO, history=NO, contact=NO
**
** PARTS
**
*Part, name=Estrutura
*Node
      1,           0.,           0.,           1.
      2,           0.,          0.5,           1.
      3,           0.,           1.,           1.
      4,           0.,           0.,          0.5
      5,           0.,          0.5,          0.5
      6,           0.,           1.,          0.5
      7,           0.,           0.,           0.
      8,           0.,          0.5,           0.
      9,           0.,           1.,           0.
     10,          0.5,           0.,           1.
     11,          0.5,          0.5,           1.
     12,          0.5,           1.,           1.
     13,          0.5,           0.,          0.5
     14,          0.5,          0.5,          0.5
     15,          0.5,           1.,          0.5
     16,          0.5,           0.,           0.
     17,          0.5,          0.5,           0.
     18,          0.5,           1.,           0.
     19,           1.,           0.,           1.
     20,           1.,          0.5,           1.
** ... 7 like lines cut
*Element, type=C3D8
1, 10, 11, 14, 13,  1,  2,  5,  4
2, 11, 12, 15, 14,  2,  3,  6,  5
3, 13, 14, 17, 16,  4,  5,  8,  7
4, 14, 15, 18, 17,  5,  6,  9,  8
5, 19, 20, 23, 22, 10, 11, 14, 13
6, 20, 21, 24, 23, 11, 12, 15, 14
7, 22, 23, 26, 25, 13, 14, 17, 16
8, 23, 24, 27, 26, 14, 15, 18, 17
*Nset, nset=Tudo, generate
  1,  27,   1
*Elset, elset=Tudo, generate
 1,  8,  1
** Section: Secao-Metal
*Solid Section, elset=Tudo, material=Metal
,
*End Part
**  
**
** ASSEMBLY
**
*Assembly, name=Assembly
**  
*Instance, name=Asb-Estrutura, part=Estrutura
*End Instance
**  
*Nset, nset=Set-Apoios-X, instance=Asb-Estrutura
 7,
*Nset, nset=Set-Apoios-Y, instance=Asb-Estrutura
  7, 25
*Nset, nset=Set-Apoios-Z, instance=Asb-Estrutura
  7,  8,  9, 16, 17, 18, 25, 26, 27
*Elset, elset=_Face-Cima_S3, internal, instance=Asb-Estrutura
 1, 2, 5, 6
*Surface, type=ELEMENT, name=Face-Cima
_Face-Cima_S3, S3
*End Assembly
** 
** MATERIALS
** 
*Material, name=Metal
*Elastic
200., 0.3
** ----------------------------------------------------------------
** 
** STEP: Carregar
** 
*Step, name=Carregar, nlgeom=NO
*Static
1., 1., 1e-05, 1.
** 
** BOUNDARY CONDITIONS
** 
** Name: Apoios-X Type: Displacement/Rotation
*Boundary
Set-Apoios-X, 1, 1
** Name: Apoios-Y Type: Displacement/Rotation
*Boundary
Set-Apoios-Y, 2, 2
** Name: Apoios-Z Type: Displacement/Rotation
*Boundary
Set-Apoios-Z, 3, 3
** 
** LOADS
** 
** Name: Compressao   Type: Pressure
*Dsload
Face-Cima, P, 100.
** 
** OUTPUT REQUESTS
** 
*Restart, write, frequency=0
** 
** FIELD OUTPUT: F-Output-1
** 
*Output, field, variable=PRESELECT
** 
** HISTORY OUTPUT: H-Output-1
** 
*Output, history, variable=PRESELECT
*End Step
